tests/unit/opflow/var_bounds/SVB_unittest1.m
% Case saved by PowerWorld Simulator, version 22, build date March 23, 2021
function mpc = SVB_unittest1
mpc.version = '2';
mpc.baseMVA =  100.00;

%% bus data 
mpc.bus = [
1	1	0.00	0.00	0.00	0.00	1	2.0000000	0.000000	138.00	1	1.000	-1.000
2	1	0.00	0.00	0.25	-0.05	1	2.0000000	0.000000	138.00	1	2.000	-2.000
3	3	0.00	0.00	0.00	0.00	1	0.5000000	57.295779513082320876798154814105	13.80	1	3.000	-3.000
4	1	-3.40	8.80	0.00	0.00	1	2.0000000	0.000000	138.00	1	4.000	-4.000
5	1	0.00	0.00	0.00	0.00	1	2.0000000	0.000000	138.00	1	5.000	-5.000
];

%% generator data 
mpc.gen = [
3	1.60	-2.20	20.00	-20.00	0.5000	100.00	1	10.0000	-10.0000	0.00	0.00	0.00	0.00	0.00	0.00	0	0	0	0	10.0000
];

%% generator cost data
mpc.gencost = [
2	0	0	4	0.0000	0.010	0.100	8.00
];

%% branch data
mpc.branch = [
1	2	2.000000	1.000000	1.20000	0.00	0.00	0.00	0.00000	0.000	1	0.00	0.00	0.00	-240.00	0.00	-240.00
2	3	2.000000	1.000000	1.20000	0.00	0.00	0.00	2.00000	60.000	1	0.00	0.00	40.29	-197.64	28.06	-23.19
2	4	2.000000	1.000000	1.20000	0.00	0.00	0.00	0.00000	0.000	1	0.00	0.00	0.00	-240.00	0.00	-240.00
4	5	2.000000	1.000000	1.20000	0.00	0.00	0.00	0.00000	0.000	1	0.00	0.00	0.00	-240.00	0.00	-240.00
];

%% bus names
mpc.bus_name = {
'1';
'2';
'3';
'4';
'5';
};

%% Generator Unit Types
mpc.gentype = {
'UN';
};

%% Generator Fuel Types
mpc.genfuel = {
'unknown';
};
